ieee.odm.test/testdata/psse/v33/Kundur_2area_LCC_HVDC.raw
0,   100.00, 33, 0, 1, 60.00     / PSS(R)E-33.7    MON, FEB 27 2017   8:44
                               100.0

     1,'BUS1   AR1  ',  20.0000,3,   1,   1,   1,1.03000,  69.4277,1.10000,0.90000,1.10000,0.90000
     2,'BUS2   AR1  ',  20.0000,2,   1,   1,   1,1.01000,  59.6645,1.10000,0.90000,1.10000,0.90000
     3,'BUS3   AR2  ',  20.0000,3,   2,   2,   1,1.03000,  -6.8000,1.10000,0.90000,1.10000,0.90000
     4,'BUS4   AR2  ',  20.0000,2,   2,   2,   1,1.01000, -15.1727,1.10000,0.90000,1.10000,0.90000
     5,'BUS5   AR1  ', 230.0000,1,   1,   1,   1,1.01006,  62.8135,1.10000,0.90000,1.10000,0.90000
     6,'BUS6   AR1  ', 230.0000,1,   1,   1,   1,0.98788,  52.5543,1.10000,0.90000,1.10000,0.90000
     7,'BUS7   L    ', 230.0000,1,   1,   1,   1,0.98000,  43.9821,1.10000,0.90000,1.10000,0.90000
     8,'BUS8        ', 230.0000,1,   2,   2,   1,0.79209,   6.2626,1.10000,0.90000,1.10000,0.90000
     9,'BUS9   L    ', 230.0000,1,   2,   2,   1,0.99250, -30.7796,1.10000,0.90000,1.10000,0.90000
    10,'BUS10   AR2 ', 230.0000,1,   2,   2,   1,0.99561, -22.4666,1.10000,0.90000,1.10000,0.90000
    11,'BUS11   AR2 ', 230.0000,1,   2,   2,   1,1.01407, -12.9646,1.10000,0.90000,1.10000,0.90000
0 / END OF BUS DATA, BEGIN LOAD DATA
     7,'L1',1,   1,   1,   767.000,   100.000,     0.000,     0.000,     0.000,     0.000,   1,1,0
     9,'L1',1,   2,   2,  1967.000,   100.000,     0.000,     0.000,     0.000,     0.000,   1,1,0
0 / END OF LOAD DATA, BEGIN FIXED SHUNT DATA
     7,'1 ',1,     0.000,   200.000
     9,'1 ',1,    30.000,   320.000
0 / END OF FIXED SHUNT DATA, BEGIN GENERATOR DATA
     1,'1 ',   719.000,   164.773,   500.000,  -150.000,1.03000,     0,   900.000, 2.50000E-3, 3.00000E-1, 0.00000E+0, 0.00000E+0,1.00000,1,  100.0,  9999.000, -9999.000,   1,1.0000
     2,'1 ',   741.000,   180.083,   500.000,  -150.000,1.01000,     0,   900.000, 2.50000E-3, 2.50000E-1, 0.00000E+0, 0.00000E+0,1.00000,1,  100.0,  9999.000, -9999.000,   1,1.0000
     3,'1 ',   672.977,   134.709,   500.000,  -150.000,1.03000,     0,   900.000, 2.50000E-3, 2.50000E-1, 0.00000E+0, 0.00000E+0,1.00000,1,  100.0,  9999.000, -9999.000,   1,1.0000
     4,'1 ',   766.000,   136.002,   500.000,  -150.000,1.01000,     0,   900.000, 2.50000E-3, 2.50000E-1, 0.00000E+0, 0.00000E+0,1.00000,1,  100.0,  9999.000, -9999.000,   1,1.0000
0 / END OF GENERATOR DATA, BEGIN BRANCH DATA
     5,     6,'1 ', 2.50000E-3, 2.50000E-2,   0.04375,    0.00,    0.00,    0.00,  0.00000,  0.00000,  0.00000,  0.00000,1,1,   0.00,   1,1.0000
     6,     7,'1 ', 1.00000E-3, 1.00000E-2,   0.01750,    0.00,    0.00,    0.00,  0.00000,  0.00000,  0.00000,  0.00000,1,1,   0.00,   1,1.0000
     7,     8,'1 ', 1.10000E-2, 1.10000E-1,   0.19250,    0.00,    0.00,    0.00,  0.00000,  0.00000,  0.00000,  0.00000,0,1,   0.00,   1,1.0000
     8,     9,'1 ', 1.10000E-2, 1.10000E-1,   0.19250,    0.00,    0.00,    0.00,  0.00000,  0.00000,  0.00000,  0.00000,0,1,   0.00,   1,1.0000
     9,    10,'1 ', 1.00000E-3, 1.00000E-2,   0.01750,    0.00,    0.00,    0.00,  0.00000,  0.00000,  0.00000,  0.00000,1,1,   0.00,   1,1.0000
    10,    11,'1 ', 2.50000E-3, 2.50000E-2,   0.04375,    0.00,    0.00,    0.00,  0.00000,  0.00000,  0.00000,  0.00000,1,1,   0.00,   1,1.0000
0 / END OF BRANCH DATA, BEGIN TRANSFORMER DATA
     1,     5,     0,'1 ',1,2,1, 0.00000E+0, 0.00000E+0,2,'            ',1,   1,1.0000,   0,1.0000,   0,1.0000,   0,1.0000,'            '
 0.00000E+0, 1.50000E-1,   900.00
1.00000,   0.000,   0.000,     0.00,     0.00,     0.00, 1,      0, 1.10000, 0.90000, 1.17000, 0.91000,  33, 0, 0.00000, 0.00000,  0.000
1.00000,   0.000
     2,     6,     0,'1 ',1,2,1, 0.00000E+0, 0.00000E+0,2,'            ',1,   1,1.0000,   0,1.0000,   0,1.0000,   0,1.0000,'            '
 0.00000E+0, 1.50000E-1,   900.00
1.00000,   0.000,   0.000,     0.00,     0.00,     0.00, 1,      0, 1.10000, 0.90000, 1.17000, 0.91000,  33, 0, 0.00000, 0.00000,  0.000
1.00000,   0.000
     3,    11,     0,'1 ',1,2,1, 0.00000E+0, 0.00000E+0,2,'            ',1,   1,1.0000,   0,1.0000,   0,1.0000,   0,1.0000,'            '
 0.00000E+0, 1.50000E-1,   900.00
1.00000,   0.000,   0.000,     0.00,     0.00,     0.00, 1,      0, 1.10000, 0.90000, 1.17000, 0.91000,  33, 0, 0.00000, 0.00000,  0.000
1.00000,   0.000
     4,    10,     0,'1 ',1,2,1, 0.00000E+0, 0.00000E+0,2,'            ',1,   1,1.0000,   0,1.0000,   0,1.0000,   0,1.0000,'            '
 0.00000E+0, 1.50000E-1,   900.00
1.00000,   0.000,   0.000,     0.00,     0.00,     0.00, 1,      0, 1.10000, 0.90000, 1.17000, 0.91000,  33, 0, 0.00000, 0.00000,  0.000
1.00000,   0.000
0 / END OF TRANSFORMER DATA, BEGIN AREA DATA
0 / END OF AREA DATA, BEGIN TWO-TERMINAL DC DATA
"1           ",1,    5.0000,    500.00,    500.00,      0.00,    0.0000,   0.00000,'R',      0.00,  20,   1.00000
     7, 2,90.00,15.00, 0.0000,13.5939, 230.0,0.92630,0.93750,1.20000,0.80000,0.00625,     0,     0,     0,'1 ', 0.0000
     9, 2,90.00,15.00, 0.0000,13.3174, 230.0,0.90970,0.94375,1.20000,0.80000,0.00625,     0,     0,     0,'1 ', 0.0000
0 / END OF TWO-TERMINAL DC DATA, BEGIN VSC DC LINE DATA
0 / END OF VSC DC LINE DATA, BEGIN IMPEDANCE CORRECTION DATA
0 / END OF IMPEDANCE CORRECTION DATA, BEGIN MULTI-TERMINAL DC DATA
0 / END OF MULTI-TERMINAL DC DATA, BEGIN MULTI-SECTION LINE DATA
0 / END OF MULTI-SECTION LINE DATA, BEGIN ZONE DATA
0 / END OF ZONE DATA, BEGIN INTER-AREA TRANSFER DATA
0 / END OF INTER-AREA TRANSFER DATA, BEGIN OWNER DATA
0 / END OF OWNER DATA, BEGIN FACTS DEVICE DATA
0 / END OF FACTS DEVICE DATA, BEGIN SWITCHED SHUNT DATA
     7,0,0,1,0.99000,0.97000,     0,  100.0,'            ',  250.00, 5,   50.00, 5,  100.00
     9,0,0,1,1.00000,0.98500,     0,  100.0,'            ',  250.00, 8,   50.00, 5,  100.00
0 / END OF SWITCHED SHUNT DATA, BEGIN GNE DATA
0 / END OF GNE DATA, BEGIN INDUCTION MACHINE DATA
0 / END OF INDUCTION MACHINE DATA
Q
